setupCmd.bat is supposed to be in the folder: 
M:\Documents\SpecProject\PythonScripts

It is used for rapid setup of cmd and ipython in the case that Python code has to be run in Remote Desktop. This was the case before I was permitted to install PSS/E on a private laptop.